data_image0
_chemical_formula_structural       Al32
_chemical_formula_sum              "Al32"
_cell_length_a       8.1
_cell_length_b       8.1
_cell_length_c       21.075
_cell_angle_alpha    90.0
_cell_angle_beta     90.0
_cell_angle_gamma    90.0

_space_group_name_H-M_alt    "P 1"
_space_group_IT_number       1

loop_
  _space_group_symop_operation_xyz
  'x, y, z'

loop_
  _atom_site_type_symbol
  _atom_site_label
  _atom_site_symmetry_multiplicity
  _atom_site_fract_x
  _atom_site_fract_y
  _atom_site_fract_z
  _atom_site_occupancy
  Al  Al1       1.0  0.0  0.0  0.35587188612099646  1.0000
  Al  Al2       1.0  0.25  0.25  0.35587188612099646  1.0000
  Al  Al3       1.0  0.5  0.0  0.35587188612099646  1.0000
  Al  Al4       1.0  0.7500000000000001  0.25  0.35587188612099646  1.0000
  Al  Al5       1.0  0.0  0.5  0.35587188612099646  1.0000
  Al  Al6       1.0  0.25  0.7500000000000001  0.35587188612099646  1.0000
  Al  Al7       1.0  0.5  0.5  0.35587188612099646  1.0000
  Al  Al8       1.0  0.7500000000000001  0.7500000000000001  0.35587188612099646  1.0000
  Al  Al9       1.0  0.0  0.25  0.45195729537366547  1.0000
  Al  Al10      1.0  0.25  0.0  0.45195729537366547  1.0000
  Al  Al11      1.0  0.5  0.25  0.45195729537366547  1.0000
  Al  Al12      1.0  0.7500000000000001  0.0  0.45195729537366547  1.0000
  Al  Al13      1.0  0.0  0.7500000000000001  0.45195729537366547  1.0000
  Al  Al14      1.0  0.25  0.5  0.45195729537366547  1.0000
  Al  Al15      1.0  0.5  0.7500000000000001  0.45195729537366547  1.0000
  Al  Al16      1.0  0.7500000000000001  0.5  0.45195729537366547  1.0000
  Al  Al17      1.0  0.006885274074074074  -0.02345625925925926  0.5575326215895611  1.0000
  Al  Al18      1.0  0.23889033703703705  0.23633139506172843  0.5575326215895611  1.0000
  Al  Al19      1.0  0.5116775913580247  0.008725900000000002  0.5575326215895611  1.0000
  Al  Al20      1.0  0.7693668925925926  0.22960191728395063  0.5575326215895611  1.0000
  Al  Al21      1.0  -0.003855712345679012  0.47678010987654323  0.5575326215895611  1.0000
  Al  Al22      1.0  0.2361055790123457  0.7502644592592593  0.5575326215895611  1.0000
  Al  Al23      1.0  0.4766190604938272  0.48512778518518523  0.5575326215895611  1.0000
  Al  Al24      1.0  0.757401701234568  0.7522193320987655  0.5575326215895611  1.0000
  Al  Al25      1.0  -0.013805401234567902  0.2544081814814815  0.6631079478054567  1.0000
  Al  Al26      1.0  0.26528051604938274  -0.024370432098765434  0.6631079478054567  1.0000
  Al  Al27      1.0  0.5151021851851852  0.2597846617283951  0.6631079478054567  1.0000
  Al  Al28      1.0  0.7421111370370371  -0.01701335802469136  0.6631079478054567  1.0000
  Al  Al29      1.0  0.022578423456790127  0.7419305950617284  0.6631079478054567  1.0000
  Al  Al30      1.0  0.2298886839506173  0.4800847592592593  0.6631079478054567  1.0000
  Al  Al31      1.0  0.5171602160493828  0.7551222728395062  0.6631079478054567  1.0000
  Al  Al32      1.0  0.7651668283950618  0.5113447790123457  0.6631079478054567  1.0000
