data_image0
_chemical_formula_structural       C48
_chemical_formula_sum              "C48"
_cell_length_a       4.923967000187756
_cell_length_b       7.388099076680753
_cell_length_c       26.48744
_cell_angle_alpha    90.00000775514499
_cell_angle_beta     90.0
_cell_angle_gamma    119.82938985782344

_space_group_name_H-M_alt    "P 1"
_space_group_IT_number       1

loop_
  _space_group_symop_operation_xyz
  'x, y, z'

loop_
  _atom_site_type_symbol
  _atom_site_label
  _atom_site_symmetry_multiplicity
  _atom_site_fract_x
  _atom_site_fract_y
  _atom_site_fract_z
  _atom_site_occupancy
  C   C1        1.0  -0.00147939705179822  -0.0008454878842293996  0.3020299783729388  1.0000
  C   C2        1.0  4.621490662188444e-05  0.0009578917597268626  0.4340099618860068  1.0000
  C   C3        1.0  0.16541899596317444  0.2221352963110279  0.302029977209398  1.0000
  C   C4        1.0  0.33315520853469816  0.11131713430967213  0.4340099565725165  1.0000
  C   C5        1.0  -0.0014797243421418654  -0.0008457616767153765  0.565990088878134  1.0000
  C   C6        1.0  4.586249112986652e-05  0.0009576225073603558  0.6979700683024719  1.0000
  C   C7        1.0  0.16541867400090043  0.22213503907268628  0.5659900870312511  1.0000
  C   C8        1.0  0.3331548598131971  0.11131685387043515  0.6979700667832323  1.0000
  C   C9        1.0  -0.0014848256855469952  0.33249053249348337  0.3020299793634467  1.0000
  C   C10       1.0  4.960568542989042e-05  0.33429433073003373  0.4340099566207354  1.0000
  C   C11       1.0  0.16542318437258197  0.5554693113969698  0.30202997953253735  1.0000
  C   C12       1.0  0.33315882940283514  0.4446505461575923  0.43400995677764803  1.0000
  C   C13       1.0  -0.001485163809171118  0.33249024957354156  0.5659900925491573  1.0000
  C   C14       1.0  4.926262549848691e-05  0.3342940748021492  0.6979700735516183  1.0000
  C   C15       1.0  0.16542286385198696  0.5554690494779286  0.5659900993704582  1.0000
  C   C16       1.0  0.3331584921081941  0.44465026521915635  0.6979700750827663  1.0000
  C   C17       1.0  -0.0014817028600806609  0.6658238546400694  0.30202998586589924  1.0000
  C   C18       1.0  5.263970933771001e-05  0.6676267119442352  0.4340099710589892  1.0000
  C   C19       1.0  0.16541614529668394  0.8888041527400088  0.302029988806172  1.0000
  C   C20       1.0  0.3331611978844577  0.7779861088766545  0.4340099675652351  1.0000
  C   C21       1.0  -0.0014820305553047927  0.6658235847949788  0.5659901027590278  1.0000
  C   C22       1.0  5.227559730745104e-05  0.6676264386663802  0.6979700799181211  1.0000
  C   C23       1.0  0.1654158112501505  0.888803887310345  0.5659900992471861  1.0000
  C   C24       1.0  0.333160847882706  0.7779858338514294  0.6979700740194535  1.0000
  C   C25       1.0  0.49851684546395214  -0.0007977138285542069  0.30202997345920507  1.0000
  C   C26       1.0  0.5000434674989865  0.000952187984947222  0.4340099547956386  1.0000
  C   C27       1.0  0.6654149985568656  0.2221826588839376  0.3020299728015489  1.0000
  C   C28       1.0  0.8331521644331693  0.11131133749600317  0.4340099474849717  1.0000
  C   C29       1.0  0.49851651086343696  -0.0007979883544003537  0.5659900806382955  1.0000
  C   C30       1.0  0.5000431163282144  0.0009519221963139591  0.6979700607175295  1.0000
  C   C31       1.0  0.665414665157791  0.22218239364150633  0.5659900780287711  1.0000
  C   C32       1.0  0.8331518176683295  0.11131105638587764  0.6979700586886108  1.0000
  C   C33       1.0  0.49850990736864964  0.33253715222930746  0.3020299752047443  1.0000
  C   C34       1.0  0.5000458766520849  0.3342878451453939  0.4340099536001911  1.0000
  C   C35       1.0  0.665417976597988  0.555515785594336  0.3020299755248445  1.0000
  C   C36       1.0  0.8331553381033431  0.44464395539900914  0.4340099534550699  1.0000
  C   C37       1.0  0.498509571644587  0.3325368716809411  0.5659900834824684  1.0000
  C   C38       1.0  0.5000455168367329  0.3342875889989638  0.6979700723810074  1.0000
  C   C39       1.0  0.665417645699934  0.5555155261247964  0.5659900917837106  1.0000
  C   C40       1.0  0.8331550029949769  0.44464367853280495  0.6979700689286575  1.0000
  C   C41       1.0  0.4985142144165526  0.6658713205624683  0.30202997572326057  1.0000
  C   C42       1.0  0.5000493106101627  0.6676209748545049  0.43400996402147496  1.0000
  C   C43       1.0  0.6654124386331152  0.8888518153483362  0.3020299768060566  1.0000
  C   C44       1.0  0.8331587611671816  0.7779803358294615  0.4340099646202252  1.0000
  C   C45       1.0  0.4985138703529279  0.6658710417927155  0.5659900957952541  1.0000
  C   C46       1.0  0.5000489414001651  0.6676207036985373  0.6979700743228  1.0000
  C   C47       1.0  0.6654121094381383  0.8888515478747951  0.5659900911508077  1.0000
  C   C48       1.0  0.8331584191511815  0.7779800659530701  0.6979700706440513  1.0000
