data_image0
_chemical_formula_structural       C72
_chemical_formula_sum              "C72"
_cell_length_a       4.923967000187756
_cell_length_b       7.388099076680753
_cell_length_c       33.479066
_cell_angle_alpha    90.00000775514499
_cell_angle_beta     90.0
_cell_angle_gamma    119.82938985782344

_space_group_name_H-M_alt    "P 1"
_space_group_IT_number       1

loop_
  _space_group_symop_operation_xyz
  'x, y, z'

loop_
  _atom_site_type_symbol
  _atom_site_label
  _atom_site_symmetry_multiplicity
  _atom_site_fract_x
  _atom_site_fract_y
  _atom_site_fract_z
  _atom_site_occupancy
  C   C1        1.0  0.6654124386331152  0.8888518153483362  0.23895531879090698  1.0000
  C   C2        1.0  0.4985142144165526  0.6658713205624683  0.23895531793423747  1.0000
  C   C3        1.0  0.665417976597988  0.555515785594336  0.23895531777725776  1.0000
  C   C4        1.0  0.16541614529668394  0.8888041527400088  0.2389553282849692  1.0000
  C   C5        1.0  0.16542318437258197  0.5554693113969698  0.23895532094800107  1.0000
  C   C6        1.0  -0.0014817028600806609  0.6658238546400694  0.23895532595873054  1.0000
  C   C7        1.0  0.49850990736864964  0.33253715222930746  0.23895531752400592  1.0000
  C   C8        1.0  0.6654149985568656  0.2221826588839376  0.23895531562268366  1.0000
  C   C9        1.0  -0.0014848256855469952  0.33249053249348337  0.2389553208142226  1.0000
  C   C10       1.0  0.16541899596317444  0.2221352963110279  0.23895531911001625  1.0000
  C   C11       1.0  0.49851684546395214  -0.0007977138285542069  0.23895531614299773  1.0000
  C   C12       1.0  -0.00147939705179822  -0.0008454878842293996  0.23895532003056813  1.0000
  C   C13       1.0  0.8331587611671816  0.7779803358294615  0.34337316630279757  1.0000
  C   C14       1.0  0.8331553381033431  0.44464395539900914  0.3433731574693259  1.0000
  C   C15       1.0  0.3331611978844577  0.7779861088766545  0.34337316863278405  1.0000
  C   C16       1.0  0.5000493106101627  0.6676209748545049  0.3433731658290878  1.0000
  C   C17       1.0  0.33315882940283514  0.4446505461575923  0.3433731600980309  1.0000
  C   C18       1.0  0.5000458766520849  0.3342878451453939  0.3433731575841406  1.0000
  C   C19       1.0  0.8331521644331693  0.11131133749600317  0.3433731527459976  1.0000
  C   C20       1.0  4.960568542989042e-05  0.33429433073003373  0.34337315997388723  1.0000
  C   C21       1.0  5.263970933771001e-05  0.6676267119442352  0.3433731713969174  1.0000
  C   C22       1.0  0.33315520853469816  0.11131713430967213  0.3433731599357382  1.0000
  C   C23       1.0  0.5000434674989865  0.000952187984947222  0.3433731585299359  1.0000
  C   C24       1.0  4.621490662188444e-05  0.0009578917597268626  0.34337316413958174  1.0000
  C   C25       1.0  0.6654121094381383  0.8888515478747951  0.4477911235621551  1.0000
  C   C26       1.0  0.1654158112501505  0.888803887310345  0.4477911299677203  1.0000
  C   C27       1.0  0.665414665157791  0.22218239364150633  0.447791113180469  1.0000
  C   C28       1.0  0.4985138703529279  0.6658710417927155  0.447791127236675  1.0000
  C   C29       1.0  0.665417645699934  0.5555155261247964  0.44779112406288535  1.0000
  C   C30       1.0  0.498509571644587  0.3325368716809411  0.44779111749523925  1.0000
  C   C31       1.0  -0.0014820305553047927  0.6658235847949788  0.4477911327461639  1.0000
  C   C32       1.0  0.16542286385198696  0.5554690494779286  0.4477911300652488  1.0000
  C   C33       1.0  0.16541867400090043  0.22213503907268628  0.44779112030290924  1.0000
  C   C34       1.0  -0.001485163809171118  0.33249024957354156  0.4477911246684794  1.0000
  C   C35       1.0  0.49851651086343696  -0.0007979883544003537  0.44779111524503135  1.0000
  C   C36       1.0  -0.0014797243421418654  -0.0008457616767153765  0.44779112176409697  1.0000
  C   C37       1.0  0.8331584191511815  0.7779800659530701  0.5522089644908273  1.0000
  C   C38       1.0  0.333160847882706  0.7779858338514294  0.552208967161325  1.0000
  C   C39       1.0  0.5000489414001651  0.6676207036985373  0.5522089674013219  1.0000
  C   C40       1.0  0.8331550029949769  0.44464367853280495  0.5522089631336692  1.0000
  C   C41       1.0  0.8331518176683295  0.11131105638587764  0.5522089550321104  1.0000
  C   C42       1.0  5.227559730745104e-05  0.6676264386663802  0.5522089718281399  1.0000
  C   C43       1.0  0.3331584921081941  0.44465026521915635  0.55220896800258  1.0000
  C   C44       1.0  0.5000455168367329  0.3342875889989638  0.552208965865045  1.0000
  C   C45       1.0  0.5000431163282144  0.0009519221963139591  0.5522089566373184  1.0000
  C   C46       1.0  4.926262549848691e-05  0.3342940748021492  0.5522089667911905  1.0000
  C   C47       1.0  0.3331548598131971  0.11131685387043515  0.5522089614362854  1.0000
  C   C48       1.0  4.586249112986652e-05  0.0009576225073603558  0.5522089626382535  1.0000
  C   C49       1.0  0.165424734691586  0.8888035859793396  0.6566268610899595  1.0000
  C   C50       1.0  0.1654217217197771  0.5554712221151086  0.6566268511335179  1.0000
  C   C51       1.0  0.49853330697698445  0.9991629811643887  0.6566268643863297  1.0000
  C   C52       1.0  0.16541832158540837  0.22213476982031974  0.6566268411769542  1.0000
  C   C53       1.0  0.4985309512024725  0.6658274125321156  0.6566268544297924  1.0000
  C   C54       1.0  0.6654214004944438  0.8887978510114968  0.6566268610897882  1.0000
  C   C55       1.0  0.49852731890747565  0.33249400118339456  0.6566268444733195  1.0000
  C   C56       1.0  0.6654179759310114  0.5554647363119232  0.6566268511333242  1.0000
  C   C57       1.0  0.9985308782454602  0.9991572132660296  0.6566268643861574  1.0000
  C   C58       1.0  0.665415575422493  0.22212906950927336  0.656626841176784  1.0000
  C   C59       1.0  0.9985274620892556  0.6658208258457643  0.6566268544295956  1.0000
  C   C60       1.0  0.9985242767626079  0.33248820369883697  0.6566268444731463  1.0000
  C   C61       1.0  5.258151750787344e-05  0.6676273585058249  0.7610447364549344  1.0000
  C   C62       1.0  5.0181008989280545e-05  0.33429169170317485  0.7610447264983943  1.0000
  C   C63       1.0  0.3331620676757518  0.7779834480396658  0.7610447397512059  1.0000
  C   C64       1.0  5.600608094012075e-05  0.000960473205398337  0.7610447165419869  1.0000
  C   C65       1.0  0.33315888234910435  0.4446508258927386  0.7610447297947567  1.0000
  C   C66       1.0  0.5000563273062734  0.6676338443090101  0.7610447364551283  1.0000
  C   C67       1.0  0.33316548383195654  0.11131983545993115  0.7610447198383561  1.0000
  C   C68       1.0  0.5000529271719047  0.3342973920142213  0.7610447264985646  1.0000
  C   C69       1.0  0.8331655567889689  0.7779900347260172  0.7610447397514026  1.0000
  C   C70       1.0  0.5000593402780823  0.0009662081732411584  0.7610447165421582  1.0000
  C   C71       1.0  0.833161924493972  0.4446566233772961  0.7610447297949299  1.0000
  C   C72       1.0  0.8331679125634809  0.11132560335829039  0.7610447198385285  1.0000
